Circuit: * C:\users\noah\Documents\ECP\project\approx4\approx4_PPU.asc

Vsout2: Removing PWL point (3e-005,0)
V26: Removing PWL point (3e-005,0)
V26: Removing PWL point (0.00033,1)
V24: Removing PWL point (9e-005,0)
V24: Removing PWL point (0.00018,0)
V23: Removing PWL point (9e-005,0)
V23: Removing PWL point (0.00018,0)
V20: Removing PWL point (3e-005,0)
V20: Removing PWL point (9e-005,1)
V20: Removing PWL point (0.00015,0)
V20: Removing PWL point (0.00033,0)
V19: Removing PWL point (3e-005,0)
V19: Removing PWL point (0.00015,0)
V19: Removing PWL point (0.00033,0)
V18: Removing PWL point (3e-005,0)
V18: Removing PWL point (9e-005,1)
V18: Removing PWL point (0.00015,0)
V18: Removing PWL point (0.00033,0)
V17: Removing PWL point (3e-005,0)
V17: Removing PWL point (0.00015,0)
V17: Removing PWL point (0.00033,0)
V16: Removing PWL point (9e-005,0)
V16: Removing PWL point (0.00021,0)
V15: Removing PWL point (3e-005,0)
V15: Removing PWL point (0.00021,0)
V14: Removing PWL point (3e-005,0)
V14: Removing PWL point (0.00018,0)
V7: Removing PWL point (3e-005,0)
V7: Removing PWL point (0.00018,0)
V6: Removing PWL point (3e-005,0)
V6: Removing PWL point (0.00021,0)
V6: Removing PWL point (0.0003,0)
V2: Removing PWL point (3e-005,0)
V2: Removing PWL point (0.00021,0)
V2: Removing PWL point (0.0003,0)
Vsout: Removing PWL point (3e-005,0)
V13: Removing PWL point (3e-005,0)
V13: Removing PWL point (0.00036,1)
Vcout: Removing PWL point (3e-005,0)
V12: Removing PWL point (3e-005,0)
V12: Removing PWL point (0.00027,0)
V11: Removing PWL point (3e-005,0)
V11: Removing PWL point (0.00027,1)
V10: Removing PWL point (3e-005,0)
V10: Removing PWL point (0.00021,1)
V10: Removing PWL point (0.00027,0)
V9: Removing PWL point (3e-005,0)
V9: Removing PWL point (0.00018,1)
V9: Removing PWL point (0.00024,0)
V8: Removing PWL point (3e-005,0)
V8: Removing PWL point (0.00024,0)
V5: Removing PWL point (3e-005,0)
V4: Removing PWL point (3e-005,0)
V4: Removing PWL point (0.00027,0)
V3: Removing PWL point (3e-005,0)
V3: Removing PWL point (0.00024,0)
V1: Removing PWL point (3e-005,0)
V1: Removing PWL point (0.00024,0)
WARNING: Node N025 is floating.

WARNING: Less than two connections to node T4.  This node is used by E:X2:1.
WARNING: Less than two connections to node T5.  This node is used by E:X3:1.
WARNING: Less than two connections to node T6.  This node is used by E:X4:1.
WARNING: Less than two connections to node T7.  This node is used by E:X5:1.
WARNING: Less than two connections to node C_OUT.  This node is used by E:X6:1.
WARNING: Less than two connections to node S_OUT.  This node is used by E:X7:1.
WARNING: Less than two connections to node T3.  This node is used by E:X1:1.
WARNING: Less than two connections to node T2.  This node is used by E:X8:1.
WARNING: Less than two connections to node T1.  This node is used by E:X9:1.
WARNING: Less than two connections to node S_IN.  This node is used by E:X10:1.
WARNING: Less than two connections to node C_IN.  This node is used by E:X11:1.
WARNING: Less than two connections to node A.  This node is used by E:X13:1.
WARNING: Less than two connections to node T8.  This node is used by E:X14:1.
Direct Newton iteration for .op point succeeded.

Date: Thu Jan 29 23:35:36 2026
Total elapsed time: 0.445 seconds.

tnom = 27
temp = 27
method = modified trap
totiter = 3100
traniter = 3097
tranpoints = 1383
accept = 1310
rejected = 73
matrix size = 196
fillins = 13
solver = Normal
Thread vector: 19.6/11.4[5] 1.7/2.7[1] 4.8/3.3[5] 0.3/2.1[1]  2592/500
Matrix Compiler1: 6.10 KB object code size  2.2/0.9/[0.5]
Matrix Compiler2: 11.96 KB object code size  1.2/1.8/[0.5]


